!SUBSTATION BREAKER DEFINITION
New Line.line_BAG_ss_ckt_bkr Bus1=100 Bus2=101 phases=3 
~r1=1e-3 r0=1e-3 x1=0.000 x0=0.000 c1=0.000 c0=0.000 Length=1 Units=m
New Line.line_BAN_ss_ckt_bkr Bus1=100 Bus2=102 phases=3 
~r1=1e-3 r0=1e-3 x1=0.000 x0=0.000 c1=0.000 c0=0.000 Length=1 Units=m
