!SUBSTATION TRANSFORMER DEFINITION
New Transformer.sub Buses=[SourceBus 100] Conns=[Delta Delta]
~kVs=[11 11] kVAs=[60000 60000] XHL=4 sub=y